* NGSPICE file created from 2bit_freq_divider.ext - technology: ihp-sg13g2

.subckt 2bit_freq_divider VDD VSS A0 CLK_OUT CLK_IN EN A1
X0 a_3126_n1943# a_2854_n1975# a_2757_n1845# VDD sg13_lv_pmos ad=0.4657p pd=2.54u as=0.2442p ps=2.06u w=0.66u l=0.13u
X1 a_935_n1985# a_n222_n1666# a_741_n1985# VSS sg13_lv_nmos ad=54.6f pd=0.68u as=0.2017p ps=1.48u w=0.42u l=0.13u
X2 a_n1377_624# a_n1576_761# a_n1482_1067# VSS sg13_lv_nmos ad=0.27427p pd=2.28u as=0.2307p ps=1.615u w=0.795u l=0.13u
X3 a_2819_778# a_2778_n414# a_2778_n280# VDD sg13_lv_pmos ad=0.1428p pd=1.52u as=79.8f ps=0.8u w=0.42u l=0.13u
X4 freq_div_cell_0.dff_nclk_0.sg13g2_dfrbp_1_0.CLK freq_div_cell_0.CLK VDD VDD sg13_lv_pmos ad=0.392p pd=2.94u as=0.392p ps=2.94u w=1.12u l=0.13u
X5 VSS freq_div_cell_0.nRST a_n425_n224# VSS sg13_lv_nmos ad=0.1428p pd=1.52u as=50.4f ps=0.66u w=0.42u l=0.13u
X6 a_411_n1940# a_357_n1657# a_333_n1940# VSS sg13_lv_nmos ad=48.3f pd=0.65u as=54.6f ps=0.68u w=0.42u l=0.13u
X7 a_2779_n1425# a_2778_n869# VDD VDD sg13_lv_pmos ad=0.2856p pd=2.36u as=0.2016p ps=1.5u w=0.84u l=0.13u
X8 VSS A1 a_1342_n712# VSS sg13_lv_nmos ad=0.15245p pd=1.17u as=0.17462p ps=1.185u w=0.55u l=0.13u
X9 VDD CLK_IN freq_div_cell_0.CLK VDD sg13_lv_pmos ad=0.3808p pd=2.92u as=0.2128p ps=1.5u w=1.12u l=0.13u
X10 a_966_169# a_n26_90# a_741_n229# VDD sg13_lv_pmos ad=43.05f pd=0.625u as=0.17695p ps=1.56u w=0.42u l=0.13u
X11 a_n852_1034# sg13g2_tiehi_1.L_HI a_n946_1034# VSS sg13_lv_nmos ad=0.1216p pd=1.02u as=0.2176p ps=1.96u w=0.64u l=0.13u
X12 a_n238_686# sg13g2_tiehi_1.L_HI VDD VDD sg13_lv_pmos ad=0.1225p pd=1.245u as=0.36p ps=2.72u w=1u l=0.13u
X13 VSS freq_div_cell_0.nRST a_411_n1940# VSS sg13_lv_nmos ad=0.1825p pd=1.325u as=48.3f ps=0.65u w=0.42u l=0.13u
X14 a_206_n1595# a_n222_n1666# a_n519_n1980# VSS sg13_lv_nmos ad=79.8f pd=0.8u as=0.1428p ps=1.52u w=0.42u l=0.13u
X15 a_2778_n686# a_2778_n869# VDD VDD sg13_lv_pmos ad=79.8f pd=0.8u as=0.2163p ps=1.55u w=0.42u l=0.13u
X16 a_n238_n1070# freq_div_cell_0.Cin VDD VDD sg13_lv_pmos ad=0.1225p pd=1.245u as=0.36p ps=2.72u w=1u l=0.13u
X17 VSS freq_div_cell_0.dff_nclk_0.Q a_n852_n722# VSS sg13_lv_nmos ad=0.1331p pd=1.12u as=0.1216p ps=1.02u w=0.64u l=0.13u
X18 VDD a_741_n229# a_1550_n228# VDD sg13_lv_pmos ad=0.2016p pd=1.5u as=0.2856p ps=2.36u w=0.84u l=0.13u
X19 a_n946_n722# freq_div_cell_0.Cin VDD VDD sg13_lv_pmos ad=0.1596p pd=1.22u as=0.2856p ps=2.36u w=0.84u l=0.13u
X20 VDD freq_div_cell_0.nRST a_n519_n1980# VDD sg13_lv_pmos ad=0.1428p pd=1.52u as=79.8f ps=0.8u w=0.42u l=0.13u
X21 VDD sg13g2_tiehi_0.L_HI a_2778_n280# VDD sg13_lv_pmos ad=0.11785p pd=1.025u as=0.1533p ps=1.57u w=0.42u l=0.13u
X22 a_2859_n58# a_2814_n388# a_2859_n130# VSS sg13_lv_nmos ad=54.6f pd=0.68u as=48.3f ps=0.65u w=0.42u l=0.13u
X23 a_1342_1044# A0 a_1310_686# VDD sg13_lv_pmos ad=0.34p pd=2.68u as=0.1225p ps=1.245u w=1u l=0.13u
X24 VDD a_987_n265# a_966_169# VDD sg13_lv_pmos ad=79.8f pd=0.8u as=43.05f ps=0.625u w=0.42u l=0.13u
X25 VDD a_357_99# a_308_161# VDD sg13_lv_pmos ad=0.11785p pd=1.025u as=51.45f ps=0.665u w=0.42u l=0.13u
X26 a_2819_778# sg13g2_tiehi_0.L_HI VDD VDD sg13_lv_pmos ad=79.8f pd=0.8u as=0.1428p ps=1.52u w=0.42u l=0.13u
X27 a_741_n1985# a_n26_n1666# a_357_n1657# VSS sg13_lv_nmos ad=0.2017p pd=1.48u as=0.19397p ps=1.29u w=0.64u l=0.13u
X28 a_1513_n1070# A1 VDD VDD sg13_lv_pmos ad=0.2128p pd=1.5u as=0.2128p ps=1.5u w=1.12u l=0.13u
X29 VSS A0 a_1342_1044# VSS sg13_lv_nmos ad=0.15245p pd=1.17u as=0.17462p ps=1.185u w=0.55u l=0.13u
X30 freq_div_cell_0.dff_nclk_0.Q a_1550_n1984# VSS VSS sg13_lv_nmos ad=0.2516p pd=2.16u as=0.14505p ps=1.15u w=0.74u l=0.13u
X31 VSS freq_div_cell_0.dff_nclk_0.Q a_n206_n712# VSS sg13_lv_nmos ad=0.15245p pd=1.17u as=0.17462p ps=1.185u w=0.55u l=0.13u
X32 VSS a_2778_n280# a_2814_n388# VSS sg13_lv_nmos ad=0.1825p pd=1.325u as=0.19397p ps=1.29u w=0.64u l=0.13u
X33 a_987_n265# freq_div_cell_0.nRST VDD VDD sg13_lv_pmos ad=79.8f pd=0.8u as=79.8f ps=0.8u w=0.42u l=0.13u
X34 a_n26_n1666# a_n222_n1666# VDD VDD sg13_lv_pmos ad=0.34p pd=2.68u as=0.19p ps=1.38u w=1u l=0.13u
X35 a_741_n229# a_n222_90# a_357_99# VDD sg13_lv_pmos ad=0.17695p pd=1.56u as=0.19p ps=1.38u w=1u l=0.13u
X36 a_206_161# a_n222_90# a_n519_n224# VSS sg13_lv_nmos ad=79.8f pd=0.8u as=0.1428p ps=1.52u w=0.42u l=0.13u
X37 a_2733_n1929# a_2854_n1975# a_2854_n1975# VSS sg13_lv_nmos ad=0.2307p pd=1.615u as=0.102p ps=1.28u w=0.3u l=0.13u
X38 VDD a_741_n229# a_987_n265# VDD sg13_lv_pmos ad=0.2163p pd=1.55u as=79.8f ps=0.8u w=0.42u l=0.13u
X39 a_n206_n712# freq_div_cell_0.dff_nclk_0.Q a_n238_n1070# VDD sg13_lv_pmos ad=0.34p pd=2.68u as=0.1225p ps=1.245u w=1u l=0.13u
X40 a_2793_n1819# a_2757_n1845# a_2733_n1929# VSS sg13_lv_nmos ad=0.27427p pd=2.28u as=0.2307p ps=1.615u w=0.795u l=0.13u
X41 VDD freq_div_cell_0.dff_nclk_0.sg13g2_dfrbp_1_0.CLK a_n222_n1666# VDD sg13_lv_pmos ad=0.19p pd=1.38u as=0.34p ps=2.68u w=1u l=0.13u
X42 VDD a_2778_n869# dff_nclk_0.D VDD sg13_lv_pmos ad=0.2163p pd=1.55u as=0.7616p ps=3.6u w=1.12u l=0.13u
X43 a_1310_n1070# freq_div_cell_0.dff_nclk_0.Q VDD VDD sg13_lv_pmos ad=0.1225p pd=1.245u as=0.36p ps=2.72u w=1u l=0.13u
X44 sg13g2_tiehi_0.L_HI a_2793_n1819# a_3126_n1943# VDD sg13_lv_pmos ad=0.3927p pd=2.99u as=0.4657p ps=2.54u w=1.155u l=0.13u
X45 VSS a_n206_n712# freq_div_cell_0.dff_nclk_0.D VSS sg13_lv_nmos ad=0.3108p pd=2.32u as=0.1628p ps=1.18u w=0.74u l=0.13u
X46 sg13g2_tiehi_1.L_HI a_n1377_624# a_n1576_602# VDD sg13_lv_pmos ad=0.3927p pd=2.99u as=0.4657p ps=2.54u w=1.155u l=0.13u
X47 a_2111_n353# freq_div_cell_0.DIV VSS VSS sg13_lv_nmos ad=0.1045p pd=0.93u as=0.187p ps=1.78u w=0.55u l=0.13u
X48 VSS a_2778_n608# a_2778_n414# VSS sg13_lv_nmos ad=0.1544p pd=1.235u as=0.2516p ps=2.16u w=0.74u l=0.13u
X49 a_1607_n712# freq_div_cell_0.dff_nclk_0.Q VSS VSS sg13_lv_nmos ad=88.8f pd=0.98u as=0.15245p ps=1.17u w=0.74u l=0.13u
X50 VSS sg13g2_or2_1_0.A a_2111_n353# VSS sg13_lv_nmos ad=0.1469p pd=1.155u as=0.1045p ps=0.93u w=0.55u l=0.13u
X51 VDD sg13g2_or2_1_0.A a_2205_n353# VDD sg13_lv_pmos ad=0.2226p pd=1.535u as=0.1596p ps=1.22u w=0.84u l=0.13u
X52 a_2859_n130# sg13g2_tiehi_0.L_HI VSS VSS sg13_lv_nmos ad=48.3f pd=0.65u as=0.1825p ps=1.325u w=0.42u l=0.13u
X53 VDD a_987_n2021# a_966_n1587# VDD sg13_lv_pmos ad=79.8f pd=0.8u as=43.05f ps=0.625u w=0.42u l=0.13u
X54 VSS freq_div_cell_1.dff_nclk_0.Q a_n206_1044# VSS sg13_lv_nmos ad=0.15245p pd=1.17u as=0.17462p ps=1.185u w=0.55u l=0.13u
X55 a_2814_n660# a_2778_n686# VSS VSS sg13_lv_nmos ad=54.6f pd=0.68u as=90.3f ps=0.85u w=0.42u l=0.13u
X56 freq_div_cell_0.CLK CLK_IN a_n1430_n1149# VSS sg13_lv_nmos ad=0.2516p pd=2.16u as=66.6f ps=0.92u w=0.74u l=0.13u
X57 a_2814_n843# a_2778_n869# a_2778_n686# VSS sg13_lv_nmos ad=47.25f pd=0.645u as=0.1428p ps=1.52u w=0.42u l=0.13u
X58 VSS a_2779_n1425# CLK_OUT VSS sg13_lv_nmos ad=0.14505p pd=1.15u as=0.2516p ps=2.16u w=0.74u l=0.13u
X59 a_n35_n1070# freq_div_cell_0.dff_nclk_0.Q VDD VDD sg13_lv_pmos ad=0.2128p pd=1.5u as=0.2128p ps=1.5u w=1.12u l=0.13u
X60 VSS a_1342_n712# freq_div_cell_0.DIV VSS sg13_lv_nmos ad=0.3108p pd=2.32u as=0.1628p ps=1.18u w=0.74u l=0.13u
X61 a_357_99# a_206_161# VSS VSS sg13_lv_nmos ad=0.19397p pd=1.29u as=0.1825p ps=1.325u w=0.64u l=0.13u
X62 a_3212_n680# a_2778_n686# VDD VDD sg13_lv_pmos ad=43.05f pd=0.625u as=79.8f ps=0.8u w=0.42u l=0.13u
X63 VDD freq_div_cell_1.dff_nclk_0.Q a_1513_686# VDD sg13_lv_pmos ad=0.2128p pd=1.5u as=0.3808p ps=2.92u w=1.12u l=0.13u
X64 VSS sg13g2_tiehi_0.L_HI a_2814_n843# VSS sg13_lv_nmos ad=90.3f pd=0.85u as=47.25f ps=0.645u w=0.42u l=0.13u
X65 VSS a_n206_1044# freq_div_cell_1.dff_nclk_0.D VSS sg13_lv_nmos ad=0.3108p pd=2.32u as=0.1628p ps=1.18u w=0.74u l=0.13u
X66 a_n852_n722# freq_div_cell_0.Cin a_n946_n722# VSS sg13_lv_nmos ad=0.1216p pd=1.02u as=0.2176p ps=1.96u w=0.64u l=0.13u
X67 a_1342_n712# A1 a_1310_n1070# VDD sg13_lv_pmos ad=0.34p pd=2.68u as=0.1225p ps=1.245u w=1u l=0.13u
X68 a_2814_n388# a_2778_n414# a_2778_n869# VSS sg13_lv_nmos ad=0.19397p pd=1.29u as=0.2017p ps=1.48u w=0.64u l=0.13u
X69 a_1607_1044# freq_div_cell_1.dff_nclk_0.Q VSS VSS sg13_lv_nmos ad=88.8f pd=0.98u as=0.15245p ps=1.17u w=0.74u l=0.13u
X70 a_2819_704# sg13g2_tiehi_0.L_HI VSS VSS sg13_lv_nmos ad=50.4f pd=0.66u as=0.1428p ps=1.52u w=0.42u l=0.13u
X71 VDD freq_div_cell_0.Cin a_n35_n1070# VDD sg13_lv_pmos ad=0.2128p pd=1.5u as=0.3808p ps=2.92u w=1.12u l=0.13u
X72 VDD a_741_n1985# a_1550_n1984# VDD sg13_lv_pmos ad=0.2016p pd=1.5u as=0.2856p ps=2.36u w=0.84u l=0.13u
X73 a_333_n1940# a_n26_n1666# a_206_n1595# VSS sg13_lv_nmos ad=54.6f pd=0.68u as=79.8f ps=0.8u w=0.42u l=0.13u
X74 a_1513_686# A0 VDD VDD sg13_lv_pmos ad=0.2128p pd=1.5u as=0.2128p ps=1.5u w=1.12u l=0.13u
X75 a_987_n265# a_741_n229# a_1125_n229# VSS sg13_lv_nmos ad=0.1428p pd=1.52u as=47.25f ps=0.645u w=0.42u l=0.13u
X76 a_2819_778# a_2778_n608# a_2778_n280# VSS sg13_lv_nmos ad=0.1428p pd=1.52u as=79.8f ps=0.8u w=0.42u l=0.13u
X77 a_2778_n869# a_2778_n608# a_2814_n660# VSS sg13_lv_nmos ad=0.2017p pd=1.48u as=54.6f ps=0.68u w=0.42u l=0.13u
X78 freq_div_cell_0.dff_nclk_0.nQ a_741_n1985# VDD VDD sg13_lv_pmos ad=0.7616p pd=3.6u as=0.2163p ps=1.55u w=1.12u l=0.13u
X79 a_n519_n1980# freq_div_cell_0.dff_nclk_0.D VDD VDD sg13_lv_pmos ad=79.8f pd=0.8u as=0.1428p ps=1.52u w=0.42u l=0.13u
X80 a_2778_n280# a_2778_n608# a_3204_n30# VDD sg13_lv_pmos ad=79.8f pd=0.8u as=51.45f ps=0.665u w=0.42u l=0.13u
X81 VSS a_1342_1044# sg13g2_or2_1_0.A VSS sg13_lv_nmos ad=0.3108p pd=2.32u as=0.1628p ps=1.18u w=0.74u l=0.13u
X82 a_n35_686# freq_div_cell_1.dff_nclk_0.Q VDD VDD sg13_lv_pmos ad=0.2128p pd=1.5u as=0.2128p ps=1.5u w=1.12u l=0.13u
X83 VDD freq_div_cell_0.nRST a_n519_n224# VDD sg13_lv_pmos ad=0.1428p pd=1.52u as=79.8f ps=0.8u w=0.42u l=0.13u
X84 a_333_n184# a_n26_90# a_206_161# VSS sg13_lv_nmos ad=54.6f pd=0.68u as=79.8f ps=0.8u w=0.42u l=0.13u
X85 a_206_161# freq_div_cell_0.nRST VDD VDD sg13_lv_pmos ad=0.1533p pd=1.57u as=0.11785p ps=1.025u w=0.42u l=0.13u
X86 a_206_n1595# a_n26_n1666# a_n519_n1980# VDD sg13_lv_pmos ad=79.8f pd=0.8u as=0.1428p ps=1.52u w=0.42u l=0.13u
X87 a_n26_90# a_n222_90# VDD VDD sg13_lv_pmos ad=0.34p pd=2.68u as=0.19p ps=1.38u w=1u l=0.13u
X88 VDD a_2778_n280# a_2814_n388# VDD sg13_lv_pmos ad=0.34p pd=2.68u as=0.19p ps=1.38u w=1u l=0.13u
X89 sg13g2_or2_1_0.A a_1342_1044# a_1513_686# VDD sg13_lv_pmos ad=0.3808p pd=2.92u as=0.2128p ps=1.5u w=1.12u l=0.13u
X90 freq_div_cell_0.dff_nclk_0.sg13g2_dfrbp_1_0.CLK freq_div_cell_0.CLK VSS VSS sg13_lv_nmos ad=0.259p pd=2.18u as=0.259p ps=2.18u w=0.74u l=0.13u
X91 freq_div_cell_0.DIV a_1342_n712# a_1513_n1070# VDD sg13_lv_pmos ad=0.3808p pd=2.92u as=0.2128p ps=1.5u w=1.12u l=0.13u
X92 freq_div_cell_0.Cout a_n946_n722# VDD VDD sg13_lv_pmos ad=0.3808p pd=2.92u as=0.1918p ps=1.5u w=1.12u l=0.13u
X93 freq_div_cell_1.dff_nclk_0.D a_n206_1044# a_n35_686# VDD sg13_lv_pmos ad=0.3808p pd=2.92u as=0.2128p ps=1.5u w=1.12u l=0.13u
X94 a_n519_n224# freq_div_cell_1.dff_nclk_0.D VDD VDD sg13_lv_pmos ad=79.8f pd=0.8u as=0.1428p ps=1.52u w=0.42u l=0.13u
X95 VDD a_2778_n608# a_2778_n414# VDD sg13_lv_pmos ad=0.19p pd=1.38u as=0.34p ps=2.68u w=1u l=0.13u
X96 freq_div_cell_1.dff_nclk_0.nQ a_741_n229# VSS VSS sg13_lv_nmos ad=0.2775p pd=2.23u as=0.2516p ps=2.16u w=0.74u l=0.13u
X97 freq_div_cell_1.dff_nclk_0.sg13g2_dfrbp_1_0.CLK freq_div_cell_0.CLK VDD VDD sg13_lv_pmos ad=0.392p pd=2.94u as=0.392p ps=2.94u w=1.12u l=0.13u
X98 a_1125_n1985# freq_div_cell_0.nRST VSS VSS sg13_lv_nmos ad=47.25f pd=0.645u as=90.3f ps=0.85u w=0.42u l=0.13u
X99 freq_div_cell_0.dff_nclk_0.D freq_div_cell_0.dff_nclk_0.Q a_59_n712# VSS sg13_lv_nmos ad=0.1628p pd=1.18u as=88.8f ps=0.98u w=0.74u l=0.13u
X100 a_1342_n712# freq_div_cell_0.dff_nclk_0.Q VSS VSS sg13_lv_nmos ad=0.17462p pd=1.185u as=0.374p ps=2.46u w=0.55u l=0.13u
X101 freq_div_cell_0.CLK EN VDD VDD sg13_lv_pmos ad=0.2128p pd=1.5u as=0.3808p ps=2.92u w=1.12u l=0.13u
X102 a_411_n184# a_357_99# a_333_n184# VSS sg13_lv_nmos ad=48.3f pd=0.65u as=54.6f ps=0.68u w=0.42u l=0.13u
X103 freq_div_cell_1.dff_nclk_0.Q a_1550_n228# VSS VSS sg13_lv_nmos ad=0.2516p pd=2.16u as=0.14505p ps=1.15u w=0.74u l=0.13u
X104 a_n1430_n1149# EN VSS VSS sg13_lv_nmos ad=66.6f pd=0.92u as=0.2516p ps=2.16u w=0.74u l=0.13u
X105 a_n26_90# a_n222_90# VSS VSS sg13_lv_nmos ad=0.2516p pd=2.16u as=0.1544p ps=1.235u w=0.74u l=0.13u
X106 a_987_n2021# freq_div_cell_0.nRST VDD VDD sg13_lv_pmos ad=79.8f pd=0.8u as=79.8f ps=0.8u w=0.42u l=0.13u
X107 a_59_n712# freq_div_cell_0.Cin VSS VSS sg13_lv_nmos ad=88.8f pd=0.98u as=0.15245p ps=1.17u w=0.74u l=0.13u
X108 freq_div_cell_0.Cin a_n946_1034# VSS VSS sg13_lv_nmos ad=0.2516p pd=2.16u as=0.1331p ps=1.12u w=0.74u l=0.13u
X109 VSS a_741_n229# a_1550_n228# VSS sg13_lv_nmos ad=0.14505p pd=1.15u as=0.187p ps=1.78u w=0.55u l=0.13u
X110 freq_div_cell_1.dff_nclk_0.nQ a_741_n229# VDD VDD sg13_lv_pmos ad=0.7616p pd=3.6u as=0.2163p ps=1.55u w=1.12u l=0.13u
X111 a_2779_n1425# a_2778_n869# VSS VSS sg13_lv_nmos ad=0.187p pd=1.78u as=0.14505p ps=1.15u w=0.55u l=0.13u
X112 freq_div_cell_0.nRST a_2111_n353# VSS VSS sg13_lv_nmos ad=0.2516p pd=2.16u as=0.1469p ps=1.155u w=0.74u l=0.13u
X113 a_n1482_1067# a_n1576_991# a_n1576_991# VSS sg13_lv_nmos ad=0.2307p pd=1.615u as=0.102p ps=1.28u w=0.3u l=0.13u
X114 freq_div_cell_0.Cin a_n946_1034# VDD VDD sg13_lv_pmos ad=0.3808p pd=2.92u as=0.1918p ps=1.5u w=1.12u l=0.13u
X115 a_2778_n608# dff_nclk_0.sg13g2_dfrbp_1_0.CLK VSS VSS sg13_lv_nmos ad=0.2516p pd=2.16u as=0.1544p ps=1.235u w=0.74u l=0.13u
X116 a_987_n2021# a_741_n1985# a_1125_n1985# VSS sg13_lv_nmos ad=0.1428p pd=1.52u as=47.25f ps=0.645u w=0.42u l=0.13u
X117 freq_div_cell_0.dff_nclk_0.D a_n206_n712# a_n35_n1070# VDD sg13_lv_pmos ad=0.3808p pd=2.92u as=0.2128p ps=1.5u w=1.12u l=0.13u
X118 VDD a_741_n1985# a_987_n2021# VDD sg13_lv_pmos ad=0.2163p pd=1.55u as=79.8f ps=0.8u w=0.42u l=0.13u
X119 a_2819_778# dff_nclk_0.D a_2819_704# VSS sg13_lv_nmos ad=0.1428p pd=1.52u as=50.4f ps=0.66u w=0.42u l=0.13u
X120 freq_div_cell_1.dff_nclk_0.D freq_div_cell_1.dff_nclk_0.Q a_59_1044# VSS sg13_lv_nmos ad=0.1628p pd=1.18u as=88.8f ps=0.98u w=0.74u l=0.13u
X121 VSS a_987_n2021# a_935_n1985# VSS sg13_lv_nmos ad=90.3f pd=0.85u as=54.6f ps=0.68u w=0.42u l=0.13u
X122 a_1342_1044# freq_div_cell_1.dff_nclk_0.Q VSS VSS sg13_lv_nmos ad=0.17462p pd=1.185u as=0.374p ps=2.46u w=0.55u l=0.13u
X123 VDD freq_div_cell_0.nRST dff_nclk_0.sg13g2_dfrbp_1_0.CLK VDD sg13_lv_pmos ad=0.392p pd=2.94u as=0.392p ps=2.94u w=1.12u l=0.13u
X124 a_966_n1587# a_n26_n1666# a_741_n1985# VDD sg13_lv_pmos ad=43.05f pd=0.625u as=0.17695p ps=1.56u w=0.42u l=0.13u
X125 VDD a_2779_n1425# CLK_OUT VDD sg13_lv_pmos ad=0.2016p pd=1.5u as=0.3808p ps=2.92u w=1.12u l=0.13u
X126 VDD freq_div_cell_1.dff_nclk_0.Q a_n946_1034# VDD sg13_lv_pmos ad=0.1918p pd=1.5u as=0.1596p ps=1.22u w=0.84u l=0.13u
X127 a_59_1044# sg13g2_tiehi_1.L_HI VSS VSS sg13_lv_nmos ad=88.8f pd=0.98u as=0.15245p ps=1.17u w=0.74u l=0.13u
X128 freq_div_cell_1.dff_nclk_0.Q a_1550_n228# VDD VDD sg13_lv_pmos ad=0.3808p pd=2.92u as=0.2016p ps=1.5u w=1.12u l=0.13u
X129 VSS a_2778_n869# dff_nclk_0.D VSS sg13_lv_nmos ad=0.2516p pd=2.16u as=0.2775p ps=2.23u w=0.74u l=0.13u
X130 a_3204_n30# a_2814_n388# VDD VDD sg13_lv_pmos ad=51.45f pd=0.665u as=0.11785p ps=1.025u w=0.42u l=0.13u
X131 VSS freq_div_cell_0.nRST a_411_n184# VSS sg13_lv_nmos ad=0.1825p pd=1.325u as=48.3f ps=0.65u w=0.42u l=0.13u
X132 a_935_n229# a_n222_90# a_741_n229# VSS sg13_lv_nmos ad=54.6f pd=0.68u as=0.2017p ps=1.48u w=0.42u l=0.13u
X133 VDD sg13g2_tiehi_0.L_HI a_2778_n686# VDD sg13_lv_pmos ad=79.8f pd=0.8u as=79.8f ps=0.8u w=0.42u l=0.13u
X134 freq_div_cell_0.dff_nclk_0.nQ a_741_n1985# VSS VSS sg13_lv_nmos ad=0.2775p pd=2.23u as=0.2516p ps=2.16u w=0.74u l=0.13u
X135 a_206_161# a_n26_90# a_n519_n224# VDD sg13_lv_pmos ad=79.8f pd=0.8u as=0.1428p ps=1.52u w=0.42u l=0.13u
X136 a_1125_n229# freq_div_cell_0.nRST VSS VSS sg13_lv_nmos ad=47.25f pd=0.645u as=90.3f ps=0.85u w=0.42u l=0.13u
X137 a_n946_1034# sg13g2_tiehi_1.L_HI VDD VDD sg13_lv_pmos ad=0.1596p pd=1.22u as=0.2856p ps=2.36u w=0.84u l=0.13u
X138 VDD sg13g2_tiehi_1.L_HI a_n35_686# VDD sg13_lv_pmos ad=0.2128p pd=1.5u as=0.3808p ps=2.92u w=1.12u l=0.13u
X139 a_2778_n869# a_2778_n414# a_3212_n680# VDD sg13_lv_pmos ad=0.17695p pd=1.56u as=43.05f ps=0.625u w=0.42u l=0.13u
X140 a_2778_n280# a_2778_n414# a_2859_n58# VSS sg13_lv_nmos ad=79.8f pd=0.8u as=54.6f ps=0.68u w=0.42u l=0.13u
X141 VSS freq_div_cell_0.nRST a_n425_n1980# VSS sg13_lv_nmos ad=0.1428p pd=1.52u as=50.4f ps=0.66u w=0.42u l=0.13u
X142 a_308_n1595# a_n222_n1666# a_206_n1595# VDD sg13_lv_pmos ad=51.45f pd=0.665u as=79.8f ps=0.8u w=0.42u l=0.13u
X143 a_n206_1044# freq_div_cell_1.dff_nclk_0.Q a_n238_686# VDD sg13_lv_pmos ad=0.34p pd=2.68u as=0.1225p ps=1.245u w=1u l=0.13u
X144 a_2205_n353# freq_div_cell_0.DIV a_2111_n353# VDD sg13_lv_pmos ad=0.1596p pd=1.22u as=0.2856p ps=2.36u w=0.84u l=0.13u
X145 a_1310_686# freq_div_cell_1.dff_nclk_0.Q VDD VDD sg13_lv_pmos ad=0.1225p pd=1.245u as=0.36p ps=2.72u w=1u l=0.13u
X146 a_308_161# a_n222_90# a_206_161# VDD sg13_lv_pmos ad=51.45f pd=0.665u as=79.8f ps=0.8u w=0.42u l=0.13u
X147 VDD freq_div_cell_0.dff_nclk_0.Q a_n946_n722# VDD sg13_lv_pmos ad=0.1918p pd=1.5u as=0.1596p ps=1.22u w=0.84u l=0.13u
X148 VDD dff_nclk_0.D a_2819_778# VDD sg13_lv_pmos ad=0.1428p pd=1.52u as=79.8f ps=0.8u w=0.42u l=0.13u
X149 a_206_n1595# freq_div_cell_0.nRST VDD VDD sg13_lv_pmos ad=0.1533p pd=1.57u as=0.11785p ps=1.025u w=0.42u l=0.13u
X150 VSS a_987_n265# a_935_n229# VSS sg13_lv_nmos ad=90.3f pd=0.85u as=54.6f ps=0.68u w=0.42u l=0.13u
X151 a_357_n1657# a_206_n1595# VSS VSS sg13_lv_nmos ad=0.19397p pd=1.29u as=0.1825p ps=1.325u w=0.64u l=0.13u
X152 a_2814_n388# a_2778_n608# a_2778_n869# VDD sg13_lv_pmos ad=0.19p pd=1.38u as=0.17695p ps=1.56u w=1u l=0.13u
X153 VSS freq_div_cell_1.dff_nclk_0.Q a_n852_1034# VSS sg13_lv_nmos ad=0.1331p pd=1.12u as=0.1216p ps=1.02u w=0.64u l=0.13u
X154 VDD freq_div_cell_0.dff_nclk_0.Q a_1513_n1070# VDD sg13_lv_pmos ad=0.2128p pd=1.5u as=0.3808p ps=2.92u w=1.12u l=0.13u
X155 a_n206_n712# freq_div_cell_0.Cin VSS VSS sg13_lv_nmos ad=0.17462p pd=1.185u as=0.374p ps=2.46u w=0.55u l=0.13u
X156 freq_div_cell_0.Cout a_n946_n722# VSS VSS sg13_lv_nmos ad=0.2516p pd=2.16u as=0.1331p ps=1.12u w=0.74u l=0.13u
X157 VDD freq_div_cell_1.dff_nclk_0.sg13g2_dfrbp_1_0.CLK a_n222_90# VDD sg13_lv_pmos ad=0.19p pd=1.38u as=0.34p ps=2.68u w=1u l=0.13u
X158 a_2778_n608# dff_nclk_0.sg13g2_dfrbp_1_0.CLK VDD VDD sg13_lv_pmos ad=0.34p pd=2.68u as=0.19p ps=1.38u w=1u l=0.13u
X159 freq_div_cell_0.DIV A1 a_1607_n712# VSS sg13_lv_nmos ad=0.1628p pd=1.18u as=88.8f ps=0.98u w=0.74u l=0.13u
X160 VSS a_741_n1985# a_1550_n1984# VSS sg13_lv_nmos ad=0.14505p pd=1.15u as=0.187p ps=1.78u w=0.55u l=0.13u
X161 VDD a_357_n1657# a_308_n1595# VDD sg13_lv_pmos ad=0.11785p pd=1.025u as=51.45f ps=0.665u w=0.42u l=0.13u
X162 a_n1576_602# a_n1576_991# a_n1576_761# VDD sg13_lv_pmos ad=0.4657p pd=2.54u as=0.2442p ps=2.06u w=0.66u l=0.13u
X163 a_741_n229# a_n26_90# a_357_99# VSS sg13_lv_nmos ad=0.2017p pd=1.48u as=0.19397p ps=1.29u w=0.64u l=0.13u
X164 a_n26_n1666# a_n222_n1666# VSS VSS sg13_lv_nmos ad=0.2516p pd=2.16u as=0.1544p ps=1.235u w=0.74u l=0.13u
X165 a_n425_n224# freq_div_cell_1.dff_nclk_0.D a_n519_n224# VSS sg13_lv_nmos ad=50.4f pd=0.66u as=0.1428p ps=1.52u w=0.42u l=0.13u
X166 a_357_n1657# a_206_n1595# VDD VDD sg13_lv_pmos ad=0.19p pd=1.38u as=0.34p ps=2.68u w=1u l=0.13u
X167 freq_div_cell_1.dff_nclk_0.sg13g2_dfrbp_1_0.CLK freq_div_cell_0.CLK VSS VSS sg13_lv_nmos ad=0.259p pd=2.18u as=0.259p ps=2.18u w=0.74u l=0.13u
X168 a_n425_n1980# freq_div_cell_0.dff_nclk_0.D a_n519_n1980# VSS sg13_lv_nmos ad=50.4f pd=0.66u as=0.1428p ps=1.52u w=0.42u l=0.13u
X169 VSS freq_div_cell_0.nRST dff_nclk_0.sg13g2_dfrbp_1_0.CLK VSS sg13_lv_nmos ad=0.259p pd=2.18u as=0.259p ps=2.18u w=0.74u l=0.13u
X170 VSS freq_div_cell_0.dff_nclk_0.sg13g2_dfrbp_1_0.CLK a_n222_n1666# VSS sg13_lv_nmos ad=0.1544p pd=1.235u as=0.2516p ps=2.16u w=0.74u l=0.13u
X171 freq_div_cell_0.dff_nclk_0.Q a_1550_n1984# VDD VDD sg13_lv_pmos ad=0.3808p pd=2.92u as=0.2016p ps=1.5u w=1.12u l=0.13u
X172 a_n206_1044# sg13g2_tiehi_1.L_HI VSS VSS sg13_lv_nmos ad=0.17462p pd=1.185u as=0.374p ps=2.46u w=0.55u l=0.13u
X173 a_357_99# a_206_161# VDD VDD sg13_lv_pmos ad=0.19p pd=1.38u as=0.34p ps=2.68u w=1u l=0.13u
X174 freq_div_cell_0.nRST a_2111_n353# VDD VDD sg13_lv_pmos ad=0.3976p pd=2.95u as=0.2226p ps=1.535u w=1.12u l=0.13u
X175 a_741_n1985# a_n222_n1666# a_357_n1657# VDD sg13_lv_pmos ad=0.17695p pd=1.56u as=0.19p ps=1.38u w=1u l=0.13u
X176 VSS freq_div_cell_1.dff_nclk_0.sg13g2_dfrbp_1_0.CLK a_n222_90# VSS sg13_lv_nmos ad=0.1544p pd=1.235u as=0.2516p ps=2.16u w=0.74u l=0.13u
X177 sg13g2_or2_1_0.A A0 a_1607_1044# VSS sg13_lv_nmos ad=0.1628p pd=1.18u as=88.8f ps=0.98u w=0.74u l=0.13u
C0 VDD a_n1576_991# 0.06383f
C1 sg13g2_tiehi_0.L_HI dff_nclk_0.sg13g2_dfrbp_1_0.CLK 0.15794f
C2 a_2778_n280# a_2778_n414# 0.13068f
C3 CLK_OUT a_2793_n1819# 0.02679f
C4 EN freq_div_cell_0.Cout 0.0135f
C5 freq_div_cell_0.dff_nclk_0.Q freq_div_cell_0.nRST 1.04232f
C6 freq_div_cell_0.Cout a_n946_n722# 0.13166f
C7 a_357_n1657# freq_div_cell_0.nRST 0.17248f
C8 a_n35_686# freq_div_cell_1.dff_nclk_0.Q 0.02559f
C9 dff_nclk_0.D a_2778_n608# 0.02056f
C10 freq_div_cell_0.dff_nclk_0.D freq_div_cell_0.nRST 0.21745f
C11 A0 sg13g2_or2_1_0.A 0.15042f
C12 freq_div_cell_0.dff_nclk_0.Q freq_div_cell_0.dff_nclk_0.D 0.24019f
C13 a_2778_n686# a_2778_n869# 0.41048f
C14 freq_div_cell_0.dff_nclk_0.Q CLK_IN 0.01844f
C15 a_n26_n1666# freq_div_cell_0.dff_nclk_0.sg13g2_dfrbp_1_0.CLK 0.01324f
C16 a_2819_778# a_2778_n608# 0.17766f
C17 A0 a_1342_1044# 0.4043f
C18 a_2778_n869# a_2778_n414# 0.40027f
C19 freq_div_cell_1.dff_nclk_0.D a_n519_n224# 0.3562f
C20 A0 a_1513_686# 0.01851f
C21 a_n26_n1666# a_741_n1985# 0.40027f
C22 freq_div_cell_0.dff_nclk_0.Q a_n206_n712# 0.46099f
C23 VDD a_2778_n608# 0.62644f
C24 freq_div_cell_1.dff_nclk_0.D a_n222_90# 0.01446f
C25 a_2111_n353# sg13g2_or2_1_0.A 0.24019f
C26 a_741_n229# a_1550_n228# 0.09575f
C27 freq_div_cell_0.dff_nclk_0.D a_n206_n712# 0.24715f
C28 VDD freq_div_cell_1.dff_nclk_0.sg13g2_dfrbp_1_0.CLK 0.27978f
C29 VDD a_n1377_624# 0.08992f
C30 a_n26_90# freq_div_cell_1.dff_nclk_0.sg13g2_dfrbp_1_0.CLK 0.01324f
C31 freq_div_cell_0.dff_nclk_0.sg13g2_dfrbp_1_0.CLK freq_div_cell_0.CLK 0.10457f
C32 VDD EN 0.42043f
C33 VDD a_n946_n722# 0.44257f
C34 a_2205_n353# freq_div_cell_0.DIV 0.01592f
C35 a_987_n265# a_741_n229# 0.41048f
C36 freq_div_cell_0.Cout freq_div_cell_0.CLK 0.0513f
C37 a_206_n1595# a_n26_n1666# 0.13068f
C38 a_n26_n1666# a_n519_n1980# 0.47248f
C39 VDD a_206_161# 0.29443f
C40 freq_div_cell_0.nRST a_1550_n1984# 0.05903f
C41 a_2814_n388# a_2778_n608# 0.04255f
C42 VDD a_2757_n1845# 0.08957f
C43 a_1342_n712# freq_div_cell_0.DIV 0.2347f
C44 a_n26_90# a_206_161# 0.13068f
C45 sg13g2_tiehi_0.L_HI a_2778_n608# 0.33332f
C46 freq_div_cell_0.dff_nclk_0.Q a_1550_n1984# 0.12389f
C47 VDD a_2205_n353# 0.01298f
C48 a_n35_686# a_n206_1044# 0.36535f
C49 a_n1576_602# a_n1576_761# 0.01952f
C50 VDD a_1342_n712# 0.25905f
C51 freq_div_cell_0.nRST a_n519_n224# 0.37259f
C52 VDD a_n26_n1666# 0.20558f
C53 a_n35_686# freq_div_cell_1.dff_nclk_0.D 0.12185f
C54 VDD a_n35_n1070# 0.20834f
C55 freq_div_cell_0.nRST a_n222_90# 0.35198f
C56 VDD a_741_n229# 0.42677f
C57 a_n26_90# a_741_n229# 0.40027f
C58 a_2778_n414# dff_nclk_0.sg13g2_dfrbp_1_0.CLK 0.01473f
C59 a_987_n2021# freq_div_cell_0.nRST 0.2629f
C60 a_2757_n1845# sg13g2_tiehi_0.L_HI 0.02873f
C61 a_2757_n1845# a_2854_n1975# 0.10864f
C62 A0 freq_div_cell_0.nRST 0.03924f
C63 freq_div_cell_0.dff_nclk_0.sg13g2_dfrbp_1_0.CLK a_n519_n1980# 0.08213f
C64 VDD freq_div_cell_0.CLK 1.46754f
C65 a_n1576_761# a_n1576_991# 0.10864f
C66 a_n222_n1666# freq_div_cell_0.nRST 0.35517f
C67 A1 a_1342_n712# 0.39347f
C68 a_357_99# a_206_161# 0.70262f
C69 CLK_OUT a_2779_n1425# 0.11629f
C70 a_n238_n1070# a_n206_n712# 0.0104f
C71 a_2111_n353# freq_div_cell_0.nRST 0.11187f
C72 freq_div_cell_0.Cin freq_div_cell_1.dff_nclk_0.sg13g2_dfrbp_1_0.CLK 0.01301f
C73 a_357_n1657# a_n222_n1666# 0.04304f
C74 VDD freq_div_cell_0.dff_nclk_0.sg13g2_dfrbp_1_0.CLK 0.2889f
C75 freq_div_cell_0.dff_nclk_0.D a_n222_n1666# 0.01446f
C76 dff_nclk_0.sg13g2_dfrbp_1_0.CLK freq_div_cell_0.nRST 0.22856f
C77 freq_div_cell_1.dff_nclk_0.Q a_741_n229# 0.02071f
C78 a_2779_n1425# a_2778_n869# 0.09575f
C79 freq_div_cell_0.Cin a_n946_n722# 0.13034f
C80 VDD a_741_n1985# 0.43487f
C81 a_n35_686# sg13g2_tiehi_1.L_HI 0.01011f
C82 VDD freq_div_cell_0.Cout 0.52792f
C83 VDD a_1550_n228# 0.23493f
C84 a_357_99# a_741_n229# 0.03957f
C85 a_741_n1985# freq_div_cell_0.dff_nclk_0.nQ 0.0571f
C86 a_2819_778# dff_nclk_0.D 0.36118f
C87 a_206_n1595# a_n519_n1980# 0.45825f
C88 VDD a_987_n265# 0.30512f
C89 a_987_n265# a_n26_90# 0.04306f
C90 a_2778_n686# a_2778_n608# 0.04324f
C91 freq_div_cell_1.dff_nclk_0.D freq_div_cell_1.dff_nclk_0.sg13g2_dfrbp_1_0.CLK 0.40308f
C92 freq_div_cell_1.dff_nclk_0.nQ a_741_n229# 0.05822f
C93 a_n222_90# a_n519_n224# 0.17766f
C94 a_2778_n608# a_2778_n414# 0.45006f
C95 VDD dff_nclk_0.D 0.94199f
C96 a_n1576_761# a_n1377_624# 0.14868f
C97 a_n35_n1070# freq_div_cell_0.Cin 0.01011f
C98 a_1342_n712# a_1513_n1070# 0.36535f
C99 VDD a_206_n1595# 0.29891f
C100 VDD a_n519_n1980# 0.37078f
C101 VDD a_2819_778# 0.36995f
C102 VDD freq_div_cell_0.DIV 0.41015f
C103 freq_div_cell_1.dff_nclk_0.Q a_1550_n228# 0.12519f
C104 a_2793_n1819# a_2757_n1845# 0.14868f
C105 VDD a_n26_90# 0.19414f
C106 freq_div_cell_0.Cin freq_div_cell_0.CLK 0.23771f
C107 VDD freq_div_cell_0.dff_nclk_0.nQ 0.18195f
C108 dff_nclk_0.D sg13g2_tiehi_0.L_HI 0.52754f
C109 a_2819_778# sg13g2_tiehi_0.L_HI 0.34887f
C110 a_987_n2021# a_n222_n1666# 0.04324f
C111 A1 freq_div_cell_0.DIV 0.22886f
C112 freq_div_cell_1.dff_nclk_0.nQ a_1550_n228# 0.21609f
C113 freq_div_cell_0.nRST freq_div_cell_1.dff_nclk_0.sg13g2_dfrbp_1_0.CLK 0.60301f
C114 sg13g2_tiehi_1.L_HI a_n1377_624# 0.12587f
C115 VDD a_2814_n388# 0.2446f
C116 VDD sg13g2_tiehi_0.L_HI 0.63551f
C117 freq_div_cell_0.Cout freq_div_cell_0.Cin 0.09143f
C118 VDD A1 0.19059f
C119 VDD a_2854_n1975# 0.09414f
C120 freq_div_cell_0.dff_nclk_0.Q a_n946_n722# 0.30546f
C121 freq_div_cell_1.dff_nclk_0.D freq_div_cell_0.CLK 0.04723f
C122 a_987_n265# freq_div_cell_1.dff_nclk_0.nQ 0.10118f
C123 VDD freq_div_cell_1.dff_nclk_0.Q 1.27642f
C124 freq_div_cell_0.nRST a_206_161# 0.32742f
C125 EN CLK_IN 0.12953f
C126 a_2778_n280# a_2778_n608# 0.05331f
C127 VDD a_357_99# 0.2446f
C128 a_n26_90# a_357_99# 0.66077f
C129 a_1342_n712# freq_div_cell_0.nRST 0.10275f
C130 a_n26_n1666# freq_div_cell_0.nRST 0.18209f
C131 freq_div_cell_0.dff_nclk_0.Q a_1342_n712# 0.12248f
C132 sg13g2_tiehi_0.L_HI a_2814_n388# 0.1626f
C133 freq_div_cell_0.nRST a_741_n229# 0.29532f
C134 a_n26_n1666# a_357_n1657# 0.66077f
C135 freq_div_cell_0.dff_nclk_0.Q a_n35_n1070# 0.02559f
C136 a_2757_n1845# a_3126_n1943# 0.01952f
C137 freq_div_cell_0.DIV sg13g2_or2_1_0.A 0.19191f
C138 freq_div_cell_0.dff_nclk_0.Q a_741_n229# 0.0119f
C139 VDD freq_div_cell_1.dff_nclk_0.nQ 0.18097f
C140 a_2778_n869# a_2778_n608# 0.02302f
C141 a_1513_n1070# freq_div_cell_0.DIV 0.10662f
C142 VDD freq_div_cell_0.Cin 0.98951f
C143 A1 freq_div_cell_1.dff_nclk_0.Q 0.01879f
C144 freq_div_cell_0.dff_nclk_0.D a_n35_n1070# 0.12185f
C145 VDD sg13g2_or2_1_0.A 0.18422f
C146 VDD a_1342_1044# 0.25749f
C147 VDD a_1513_n1070# 0.20834f
C148 freq_div_cell_0.nRST freq_div_cell_0.CLK 0.1436f
C149 a_n238_686# a_n206_1044# 0.0104f
C150 VDD a_1513_686# 0.20834f
C151 a_n35_n1070# a_n206_n712# 0.36535f
C152 VDD a_n206_1044# 0.25726f
C153 a_n519_n224# freq_div_cell_1.dff_nclk_0.sg13g2_dfrbp_1_0.CLK 0.08213f
C154 dff_nclk_0.D a_2778_n686# 0.11033f
C155 freq_div_cell_0.dff_nclk_0.D freq_div_cell_0.CLK 0.05047f
C156 CLK_IN freq_div_cell_0.CLK 0.26273f
C157 freq_div_cell_0.dff_nclk_0.sg13g2_dfrbp_1_0.CLK freq_div_cell_0.nRST 0.60301f
C158 a_n222_90# freq_div_cell_1.dff_nclk_0.sg13g2_dfrbp_1_0.CLK 0.33731f
C159 freq_div_cell_1.dff_nclk_0.nQ freq_div_cell_1.dff_nclk_0.Q 0.02712f
C160 VDD freq_div_cell_1.dff_nclk_0.D 0.81792f
C161 a_2819_778# a_2778_n414# 0.47248f
C162 freq_div_cell_0.nRST a_741_n1985# 0.31114f
C163 VDD a_2793_n1819# 0.09561f
C164 freq_div_cell_0.dff_nclk_0.Q a_741_n1985# 0.01984f
C165 freq_div_cell_0.dff_nclk_0.D freq_div_cell_0.dff_nclk_0.sg13g2_dfrbp_1_0.CLK 0.40308f
C166 VDD a_n1576_761# 0.05334f
C167 freq_div_cell_0.dff_nclk_0.Q freq_div_cell_0.Cout 0.2223f
C168 VDD a_2778_n686# 0.30498f
C169 freq_div_cell_0.Cin freq_div_cell_1.dff_nclk_0.Q 0.22232f
C170 a_n519_n224# a_206_161# 0.45825f
C171 a_357_n1657# a_741_n1985# 0.03957f
C172 A1 a_1513_n1070# 0.01851f
C173 sg13g2_or2_1_0.A freq_div_cell_1.dff_nclk_0.Q 0.06584f
C174 VDD a_n946_1034# 0.4437f
C175 VDD a_2778_n414# 0.19972f
C176 a_n222_90# a_206_161# 0.05314f
C177 a_1310_686# a_1342_1044# 0.0104f
C178 a_1342_1044# freq_div_cell_1.dff_nclk_0.Q 0.14987f
C179 freq_div_cell_0.dff_nclk_0.D freq_div_cell_0.Cout 0.04623f
C180 a_987_n265# freq_div_cell_0.nRST 0.24222f
C181 a_1513_686# freq_div_cell_1.dff_nclk_0.Q 0.02246f
C182 a_n206_1044# freq_div_cell_1.dff_nclk_0.Q 0.46099f
C183 a_2778_n608# dff_nclk_0.sg13g2_dfrbp_1_0.CLK 0.33833f
C184 dff_nclk_0.D freq_div_cell_0.nRST 0.0832f
C185 freq_div_cell_0.Cout a_n206_n712# 0.01154f
C186 a_2793_n1819# sg13g2_tiehi_0.L_HI 0.09937f
C187 a_206_n1595# freq_div_cell_0.nRST 0.32732f
C188 a_n519_n1980# freq_div_cell_0.nRST 0.37259f
C189 a_n222_90# a_741_n229# 0.02302f
C190 a_2793_n1819# a_2854_n1975# 0.0229f
C191 freq_div_cell_0.DIV freq_div_cell_0.nRST 0.42016f
C192 sg13g2_tiehi_0.L_HI a_2778_n686# 0.24607f
C193 a_987_n2021# a_n26_n1666# 0.04306f
C194 freq_div_cell_1.dff_nclk_0.D freq_div_cell_1.dff_nclk_0.Q 0.24019f
C195 a_206_n1595# a_357_n1657# 0.70262f
C196 a_2814_n388# a_2778_n414# 0.66077f
C197 sg13g2_tiehi_0.L_HI a_2778_n414# 0.12336f
C198 freq_div_cell_0.dff_nclk_0.D a_n519_n1980# 0.3562f
C199 VDD sg13g2_tiehi_1.L_HI 0.48328f
C200 VDD freq_div_cell_0.nRST 2.78037f
C201 freq_div_cell_0.nRST a_n26_90# 0.18489f
C202 VDD freq_div_cell_0.dff_nclk_0.Q 1.23836f
C203 a_n946_1034# freq_div_cell_1.dff_nclk_0.Q 0.30546f
C204 sg13g2_or2_1_0.A a_1342_1044# 0.23383f
C205 a_n26_n1666# a_n222_n1666# 0.45047f